I"×/Users/katala/Development/FlatIron%20Code/MOD_II/RAILS/rails-dynamic-request-readme-web-010818/app/assets/stylesheets/application.css?type=text/css&id=e43c4a49baf95bff8c81134461460e943cccf01034d63f15943c05b4759bb49c:ET