I"ò/Users/katala/Development/FlatIron%20Code/MOD_II/RAILS/rails-dynamic-request-readme-web-010818/app/assets/javascripts/application.js?type=application/javascript&pipeline=self&id=47e3d6d017a1e98319c402fca2f80ff735470cff569cb7879b9796dc6d4c8b64:ET