I"ó/Users/katala/Development/FlatIron%20Code/MOD_II/RAILS/rails-dynamic-request-readme-web-010818/app/assets/javascripts/application.js?type=application/javascript&pipeline=debug&id=3313051e68aca92f7dfe25307166280616c7cb5478c49b41d3efed850550cb31:ET