I"ä/Users/katala/Development/FlatIron%20Code/MOD_II/RAILS/rails-dynamic-request-readme-web-010818/app/assets/javascripts/application.js?type=application/javascript&id=01a3e3d2716f9d171de8299aeb175bcdda03ab91a52428f08c775116993075d0:ET