I"å/Users/katala/Development/FlatIron%20Code/MOD_II/RAILS/rails-dynamic-request-readme-web-010818/app/assets/stylesheets/application.css?type=text/css&pipeline=self&id=da163bf22db1f85303f9bb56d9fd21851c5ae7f867b54587e1a3ed5270527dc0:ET