I"ä/Users/katala/Development/FlatIron%20Code/MOD_II/RAILS/rails-dynamic-request-readme-web-010818/app/assets/javascripts/application.js?type=application/javascript&id=79f7ec54e20a35ccbda85afe5d216adfd54663105e5f9d6301ad0f953c1f03e7:ET