I"ò/Users/katala/Development/FlatIron%20Code/MOD_II/RAILS/rails-dynamic-request-readme-web-010818/app/assets/javascripts/application.js?type=application/javascript&pipeline=self&id=28862b01c08ddeeadd3a12528db5a01adf36261b8c48979e0aa72b74e94aab24:ET