I"å/Users/katala/Development/FlatIron%20Code/MOD_II/RAILS/rails-dynamic-request-readme-web-010818/app/assets/stylesheets/application.css?type=text/css&pipeline=self&id=dc8d8b668639cf9576c71de648b7f73740a0cfa619bffb1d291c1579993f7138:ET