I"×/Users/katala/Development/FlatIron%20Code/MOD_II/RAILS/rails-dynamic-request-readme-web-010818/app/assets/stylesheets/application.css?type=text/css&id=0b8c8854893947c7f0180a29ac8232a1f9056850690a8d68a52d9985c00cf4f2:ET