I"æ/Users/katala/Development/FlatIron%20Code/MOD_II/RAILS/rails-dynamic-request-readme-web-010818/app/assets/stylesheets/application.css?type=text/css&pipeline=debug&id=c830e7ffa022ef1814269779977464249de20fec5b686859c6b2060d9dd4d8a3:ET